/*--------------------------------*- C++ -*----------------------------------*\
| =========                 |                                                 |
| \\      /  F ield         | OpenFOAM: The Open Source CFD Toolbox           |
|  \\    /   O peration     | Version:  2.3.0                                 |
|   \\  /    A nd           | Web:      www.OpenFOAM.org                      |
|    \\/     M anipulation  |                                                 |
\*---------------------------------------------------------------------------*/
FoamFile
{
    version     2.0;
    format      ascii;
    class       symmTensorField;
    object      values;
}
// * * * * * * * * * * * * * * * * * * * * * * * * * * * * * * * * * * * * * //


// Data on points 
//       uu_bar      uv_bar      uw_bar       vv_bar       vw_bar       ww_bar
14
(
	(0.000000    0.00000000  0.00000000   0.0000       0.00000000   0.00000000)
	(1.7        -0.4         0.0          0.7          0.0          0.98)
	(1.65       -0.35        0.0          0.55         0.0          0.83)
	(1.5        -0.3         0.0          0.48         0.0          0.7)
	(1          -0.2         0.0          0.3          0.0          0.5)
	(0.5        -0.15        0.0          0.2          0.0          0.3)
	(0.25       -0.03        0.0          0.15         0.0          0.15)

	(0.000000    0.00000000  0.00000000   0.0000       0.00000000   0.00000000)
	(1.7        -0.4         0.0          0.7          0.0          0.98)
	(1.65       -0.35        0.0          0.55         0.0          0.83)
	(1.5        -0.3         0.0          0.48         0.0          0.7)
	(1          -0.2         0.0          0.3          0.0          0.5)
	(0.5        -0.15        0.0          0.2          0.0          0.3)
	(0.25       -0.03        0.0          0.15         0.0          0.15)
)
