/*--------------------------------*- C++ -*----------------------------------*\
| =========                 |                                                 |
| \\      /  F ield         | OpenFOAM: The Open Source CFD Toolbox           |
|  \\    /   O peration     | Version:  2.3.0                                 |
|   \\  /    A nd           | Web:      www.OpenFOAM.org                      |
|    \\/     M anipulation  |                                                 |
\*---------------------------------------------------------------------------*/
FoamFile
{
    version     2.0;
    format      ascii;
    class       vectorField;
    object      values;
}
// * * * * * * * * * * * * * * * * * * * * * * * * * * * * * * * * * * * * * //


// Data on points
14
(
	(0.0 0.0 0.0)
	(4.6 0.0 0.0)
	(5.8 0.0 0.0)
	(7.0 0.0 0.0)
	(8.1 0.0 0.0)
	(9.2 0.0 0.0)
	(10.0 0.0 0.0)
	
	(0.0 0.0 0.0)
	(4.6 0.0 0.0)
	(5.8 0.0 0.0)
	(7.0 0.0 0.0)
	(8.1 0.0 0.0)
	(9.2 0.0 0.0)
	(10.0 0.0 0.0)
)
